[root]
type=Root
children=system
eventq_index=0
full_system=false
sim_quantum=0
time_sync_enable=false
time_sync_period=100000000000
time_sync_spin_threshold=100000000

[system]
type=System
children=clk_domain cpu0 cpu1 cpu2 cpu3 dma_cntrl0 dma_cntrl1 dvfs_handler l1_coalescer00 l1_coalescer01 l1_coalescer02 l1_coalescer03 l1_coalescer04 l1_coalescer05 l1_coalescer06 l1_coalescer07 l1_coalescer08 l1_coalescer09 l1_coalescer10 l1_coalescer11 l1_coalescer12 l1_coalescer13 l1_coalescer14 l1_coalescer15 l1_coalescer16 l1_coalescer17 l1_coalescer18 l1_coalescer19 l1_coalescer20 l1_coalescer21 l1_coalescer22 l1_coalescer23 l1_coalescer24 l1_coalescer25 l1_coalescer26 l1_coalescer27 l1_coalescer28 l1_coalescer29 l1_coalescer30 l1_coalescer31 l1_coalescer32 l1_coalescer33 l1_coalescer34 l1_coalescer35 l1_coalescer36 l1_coalescer37 l1_coalescer38 l1_coalescer39 l1_coalescer40 l1_coalescer41 l1_coalescer42 l1_coalescer43 l1_coalescer44 l1_coalescer45 l1_coalescer46 l1_coalescer47 l1_coalescer48 l1_coalescer49 l1_coalescer50 l1_coalescer51 l1_coalescer52 l1_coalescer53 l1_coalescer54 l1_coalescer55 l1_coalescer56 l1_coalescer57 l1_coalescer58 l1_coalescer59 l1_coalescer60 l1_coalescer61 l1_coalescer62 l1_coalescer63 l1_tlb00 l1_tlb01 l1_tlb02 l1_tlb03 l1_tlb04 l1_tlb05 l1_tlb06 l1_tlb07 l1_tlb08 l1_tlb09 l1_tlb10 l1_tlb11 l1_tlb12 l1_tlb13 l1_tlb14 l1_tlb15 l1_tlb16 l1_tlb17 l1_tlb18 l1_tlb19 l1_tlb20 l1_tlb21 l1_tlb22 l1_tlb23 l1_tlb24 l1_tlb25 l1_tlb26 l1_tlb27 l1_tlb28 l1_tlb29 l1_tlb30 l1_tlb31 l1_tlb32 l1_tlb33 l1_tlb34 l1_tlb35 l1_tlb36 l1_tlb37 l1_tlb38 l1_tlb39 l1_tlb40 l1_tlb41 l1_tlb42 l1_tlb43 l1_tlb44 l1_tlb45 l1_tlb46 l1_tlb47 l1_tlb48 l1_tlb49 l1_tlb50 l1_tlb51 l1_tlb52 l1_tlb53 l1_tlb54 l1_tlb55 l1_tlb56 l1_tlb57 l1_tlb58 l1_tlb59 l1_tlb60 l1_tlb61 l1_tlb62 l1_tlb63 l2_coalescer l2_tlb l3_coalescer l3_tlb mem_ctrls00 mem_ctrls01 mem_ctrls02 mem_ctrls03 mem_ctrls04 mem_ctrls05 mem_ctrls06 mem_ctrls07 mem_ctrls08 mem_ctrls09 mem_ctrls10 mem_ctrls11 mem_ctrls12 mem_ctrls13 mem_ctrls14 mem_ctrls15 mem_ctrls16 mem_ctrls17 mem_ctrls18 mem_ctrls19 mem_ctrls20 mem_ctrls21 mem_ctrls22 mem_ctrls23 mem_ctrls24 mem_ctrls25 mem_ctrls26 mem_ctrls27 mem_ctrls28 mem_ctrls29 mem_ctrls30 mem_ctrls31 mem_ctrls32 mem_ctrls33 mem_ctrls34 mem_ctrls35 mem_ctrls36 mem_ctrls37 mem_ctrls38 mem_ctrls39 mem_ctrls40 mem_ctrls41 mem_ctrls42 mem_ctrls43 mem_ctrls44 mem_ctrls45 mem_ctrls46 mem_ctrls47 mem_ctrls48 mem_ctrls49 mem_ctrls50 mem_ctrls51 mem_ctrls52 mem_ctrls53 mem_ctrls54 mem_ctrls55 mem_ctrls56 mem_ctrls57 mem_ctrls58 mem_ctrls59 mem_ctrls60 mem_ctrls61 mem_ctrls62 mem_ctrls63 piobus redirect_paths0 redirect_paths1 redirect_paths2 ruby scalar_coalescer00 scalar_coalescer01 scalar_coalescer02 scalar_coalescer03 scalar_coalescer04 scalar_coalescer05 scalar_coalescer06 scalar_coalescer07 scalar_coalescer08 scalar_coalescer09 scalar_coalescer10 scalar_coalescer11 scalar_coalescer12 scalar_coalescer13 scalar_coalescer14 scalar_coalescer15 scalar_tlb00 scalar_tlb01 scalar_tlb02 scalar_tlb03 scalar_tlb04 scalar_tlb05 scalar_tlb06 scalar_tlb07 scalar_tlb08 scalar_tlb09 scalar_tlb10 scalar_tlb11 scalar_tlb12 scalar_tlb13 scalar_tlb14 scalar_tlb15 sqc_coalescer00 sqc_coalescer01 sqc_coalescer02 sqc_coalescer03 sqc_coalescer04 sqc_coalescer05 sqc_coalescer06 sqc_coalescer07 sqc_coalescer08 sqc_coalescer09 sqc_coalescer10 sqc_coalescer11 sqc_coalescer12 sqc_coalescer13 sqc_coalescer14 sqc_coalescer15 sqc_tlb00 sqc_tlb01 sqc_tlb02 sqc_tlb03 sqc_tlb04 sqc_tlb05 sqc_tlb06 sqc_tlb07 sqc_tlb08 sqc_tlb09 sqc_tlb10 sqc_tlb11 sqc_tlb12 sqc_tlb13 sqc_tlb14 sqc_tlb15 sys_port_proxy voltage_domain workload
auto_unlink_shared_backstore=false
cache_line_size=64
eventq_index=0
exit_on_work_items=false
init_param=0
m5ops_base=0
mem_mode=timing
mem_ranges=0:17179869184
memories=system.mem_ctrls00.dram system.mem_ctrls01.dram system.mem_ctrls02.dram system.mem_ctrls03.dram system.mem_ctrls04.dram system.mem_ctrls05.dram system.mem_ctrls06.dram system.mem_ctrls07.dram system.mem_ctrls08.dram system.mem_ctrls09.dram system.mem_ctrls10.dram system.mem_ctrls11.dram system.mem_ctrls12.dram system.mem_ctrls13.dram system.mem_ctrls14.dram system.mem_ctrls15.dram system.mem_ctrls16.dram system.mem_ctrls17.dram system.mem_ctrls18.dram system.mem_ctrls19.dram system.mem_ctrls20.dram system.mem_ctrls21.dram system.mem_ctrls22.dram system.mem_ctrls23.dram system.mem_ctrls24.dram system.mem_ctrls25.dram system.mem_ctrls26.dram system.mem_ctrls27.dram system.mem_ctrls28.dram system.mem_ctrls29.dram system.mem_ctrls30.dram system.mem_ctrls31.dram system.mem_ctrls32.dram system.mem_ctrls33.dram system.mem_ctrls34.dram system.mem_ctrls35.dram system.mem_ctrls36.dram system.mem_ctrls37.dram system.mem_ctrls38.dram system.mem_ctrls39.dram system.mem_ctrls40.dram system.mem_ctrls41.dram system.mem_ctrls42.dram system.mem_ctrls43.dram system.mem_ctrls44.dram system.mem_ctrls45.dram system.mem_ctrls46.dram system.mem_ctrls47.dram system.mem_ctrls48.dram system.mem_ctrls49.dram system.mem_ctrls50.dram system.mem_ctrls51.dram system.mem_ctrls52.dram system.mem_ctrls53.dram system.mem_ctrls54.dram system.mem_ctrls55.dram system.mem_ctrls56.dram system.mem_ctrls57.dram system.mem_ctrls58.dram system.mem_ctrls59.dram system.mem_ctrls60.dram system.mem_ctrls61.dram system.mem_ctrls62.dram system.mem_ctrls63.dram system.ruby.phys_mem
mmap_using_noreserve=false
multi_thread=false
num_work_ids=16
readfile=
redirect_paths=system.redirect_paths0 system.redirect_paths1 system.redirect_paths2
shadow_rom_ranges=
shared_backstore=
symbolfile=
thermal_components=
thermal_model=Null
work_begin_ckpt_count=0
work_begin_cpu_id_exit=-1
work_begin_exit_count=0
work_cpus_ckpt_count=0
work_end_ckpt_count=0
work_end_exit_count=0
work_item_id=-1
workload=system.workload
system_port=system.sys_port_proxy.in_ports[0]

[system.clk_domain]
type=SrcClockDomain
clock=1000
domain_id=-1
eventq_index=0
init_perf_level=0
voltage_domain=system.voltage_domain

[system.cpu0]
type=BaseTimingSimpleCPU
children=clk_domain decoder interrupts isa mmu power_state tracer workload
branchPred=Null
checker=Null
clk_domain=system.cpu0.clk_domain
cpu_id=0
decoder=system.cpu0.decoder
do_checkpoint_insts=true
do_statistics_insts=true
eventq_index=0
function_trace=false
function_trace_start=0
interrupts=system.cpu0.interrupts
isa=system.cpu0.isa
max_insts_all_threads=0
max_insts_any_thread=0
mmu=system.cpu0.mmu
numThreads=1
power_gating_on_idle=false
power_model=
power_state=system.cpu0.power_state
progress_interval=0
pwr_gating_latency=300
simpoint_start_insts=
socket_id=0
switched_out=false
syscallRetryLatency=10000
system=system
tracer=system.cpu0.tracer
workload=system.cpu0.workload
dcache_port=system.ruby.cp_cntrl0.sequencer.in_ports[1]
icache_port=system.ruby.cp_cntrl0.sequencer.in_ports[0]

[system.cpu0.clk_domain]
type=SrcClockDomain
children=voltage_domain
clock=500
domain_id=-1
eventq_index=0
init_perf_level=0
voltage_domain=system.cpu0.clk_domain.voltage_domain

[system.cpu0.clk_domain.voltage_domain]
type=VoltageDomain
eventq_index=0
voltage=1.0

[system.cpu0.decoder]
type=X86Decoder
eventq_index=0
isa=system.cpu0.isa

[system.cpu0.interrupts]
type=X86LocalApic
children=clk_domain
clk_domain=system.cpu0.interrupts.clk_domain
eventq_index=0
int_latency=1000
pio_latency=100000
system=system
int_requestor=system.piobus.cpu_side_ports[1]
int_responder=system.piobus.mem_side_ports[3]
pio=system.piobus.mem_side_ports[2]

[system.cpu0.interrupts.clk_domain]
type=DerivedClockDomain
clk_divider=16
clk_domain=system.cpu0.clk_domain
eventq_index=0

[system.cpu0.isa]
type=X86ISA
eventq_index=0
vendor_string=M5 Simulator

[system.cpu0.mmu]
type=X86MMU
children=dtb itb
dtb=system.cpu0.mmu.dtb
eventq_index=0
itb=system.cpu0.mmu.itb

[system.cpu0.mmu.dtb]
type=X86TLB
children=walker
entry_type=data
eventq_index=0
next_level=Null
size=64
system=system
walker=system.cpu0.mmu.dtb.walker

[system.cpu0.mmu.dtb.walker]
type=X86PagetableWalker
children=power_state
clk_domain=system.cpu0.clk_domain
eventq_index=0
num_squash_per_cycle=4
power_model=
power_state=system.cpu0.mmu.dtb.walker.power_state
system=system

[system.cpu0.mmu.dtb.walker.power_state]
type=PowerState
clk_gate_bins=20
clk_gate_max=1000000000000
clk_gate_min=1000
default_state=UNDEFINED
eventq_index=0
leaders=
possible_states=

[system.cpu0.mmu.itb]
type=X86TLB
children=walker
entry_type=instruction
eventq_index=0
next_level=Null
size=64
system=system
walker=system.cpu0.mmu.itb.walker

[system.cpu0.mmu.itb.walker]
type=X86PagetableWalker
children=power_state
clk_domain=system.cpu0.clk_domain
eventq_index=0
num_squash_per_cycle=4
power_model=
power_state=system.cpu0.mmu.itb.walker.power_state
system=system

[system.cpu0.mmu.itb.walker.power_state]
type=PowerState
clk_gate_bins=20
clk_gate_max=1000000000000
clk_gate_min=1000
default_state=UNDEFINED
eventq_index=0
leaders=
possible_states=

[system.cpu0.power_state]
type=PowerState
clk_gate_bins=20
clk_gate_max=1000000000000
clk_gate_min=1000
default_state=UNDEFINED
eventq_index=0
leaders=
possible_states=ON CLK_GATED OFF

[system.cpu0.tracer]
type=ExeTracer
eventq_index=0

[system.cpu0.workload]
type=Process
children=drivers0 drivers1
cmd=particlefilter_naive -x 128 -y 128 -z 10 -np 1000
cwd=/nobackup/condor/execute/dir_3187532
drivers=system.cpu0.workload.drivers0 system.cpu0.workload.drivers1
egid=100
env=LD_LIBRARY_PATH=/opt/rocm/lib:/opt/rocm/hcc/lib:/opt/rocm/hsa/lib:/opt/rocm/hip/lib:/opt/rocm/libhsakmt/lib:/opt/rocm/miopen/lib:/opt/rocm/miopengemm/lib:/opt/rocm/hipblas/lib:/opt/rocm/rocblas/lib:/usr/lib/x86_64-linux-gnu HOME=/ HSA_ENABLE_INTERRUPT=1 HSA_ENABLE_SDMA=0
errout=cerr
euid=100
eventq_index=0
executable=particlefilter/particlefilter_naive
gid=100
input=cin
kvmInSE=false
maxStackSize=67108864
output=cout
pgid=100
pid=100
ppid=0
release=5.1.0
simpoint=0
system=system
uid=100
useArchPT=false

[system.cpu0.workload.drivers0]
type=GPUComputeDriver
children=device
dGPUPoolID=0
device=system.cpu0.workload.drivers0.device
eventq_index=0
filename=kfd
gfxVersion=gfx801
isdGPU=false
m_type=5

[system.cpu0.workload.drivers0.device]
type=GPUCommandProcessor
children=dispatcher hsapp power_state walker
clk_domain=system.cpu0.clk_domain
dispatcher=system.cpu0.workload.drivers0.device.dispatcher
eventq_index=0
hsapp=system.cpu0.workload.drivers0.device.hsapp
power_model=
power_state=system.cpu0.workload.drivers0.device.power_state
sid=0
ssid=0
system=system
walker=system.cpu0.workload.drivers0.device.walker
dma=system.dma_cntrl1.dma_sequencer.in_ports[0]
pio=system.piobus.mem_side_ports[0]

[system.cpu0.workload.drivers0.device.dispatcher]
type=GPUDispatcher
eventq_index=0

[system.cpu0.workload.drivers0.device.hsapp]
type=HSAPacketProcessor
children=power_state walker
clk_domain=system.cpu0.clk_domain
eventq_index=0
numHWQueues=10
pioAddr=17179869184
pktProcessDelay=4400000
power_model=
power_state=system.cpu0.workload.drivers0.device.hsapp.power_state
sid=0
ssid=0
system=system
wakeupDelay=100000000
walker=system.cpu0.workload.drivers0.device.hsapp.walker
dma=system.dma_cntrl0.dma_sequencer.in_ports[0]
pio=system.piobus.mem_side_ports[1]

[system.cpu0.workload.drivers0.device.hsapp.power_state]
type=PowerState
clk_gate_bins=20
clk_gate_max=1000000000000
clk_gate_min=1000
default_state=UNDEFINED
eventq_index=0
leaders=
possible_states=

[system.cpu0.workload.drivers0.device.hsapp.walker]
type=VegaPagetableWalker
children=power_state
clk_domain=system.cpu0.clk_domain
eventq_index=0
power_model=
power_state=system.cpu0.workload.drivers0.device.hsapp.walker.power_state
system=system

[system.cpu0.workload.drivers0.device.hsapp.walker.power_state]
type=PowerState
clk_gate_bins=20
clk_gate_max=1000000000000
clk_gate_min=1000
default_state=UNDEFINED
eventq_index=0
leaders=
possible_states=

[system.cpu0.workload.drivers0.device.power_state]
type=PowerState
clk_gate_bins=20
clk_gate_max=1000000000000
clk_gate_min=1000
default_state=UNDEFINED
eventq_index=0
leaders=
possible_states=

[system.cpu0.workload.drivers0.device.walker]
type=VegaPagetableWalker
children=power_state
clk_domain=system.cpu0.clk_domain
eventq_index=0
power_model=
power_state=system.cpu0.workload.drivers0.device.walker.power_state
system=system

[system.cpu0.workload.drivers0.device.walker.power_state]
type=PowerState
clk_gate_bins=20
clk_gate_max=1000000000000
clk_gate_min=1000
default_state=UNDEFINED
eventq_index=0
leaders=
possible_states=

[system.cpu0.workload.drivers1]
type=GPURenderDriver
eventq_index=0
filename=dri/renderD128

[system.cpu1]
type=BaseTimingSimpleCPU
children=clk_domain decoder interrupts isa mmu power_state tracer
branchPred=Null
checker=Null
clk_domain=system.cpu1.clk_domain
cpu_id=1
decoder=system.cpu1.decoder
do_checkpoint_insts=true
do_statistics_insts=true
eventq_index=0
function_trace=false
function_trace_start=0
interrupts=system.cpu1.interrupts
isa=system.cpu1.isa
max_insts_all_threads=0
max_insts_any_thread=0
mmu=system.cpu1.mmu
numThreads=1
power_gating_on_idle=false
power_model=
power_state=system.cpu1.power_state
progress_interval=0
pwr_gating_latency=300
simpoint_start_insts=
socket_id=0
switched_out=false
syscallRetryLatency=10000
system=system
tracer=system.cpu1.tracer
workload=system.cpu0.workload
dcache_port=system.ruby.cp_cntrl0.sequencer1.in_ports[1]
icache_port=system.ruby.cp_cntrl0.sequencer1.in_ports[0]

[system.cpu1.clk_domain]
type=SrcClockDomain
children=voltage_domain
clock=500
domain_id=-1
eventq_index=0
init_perf_level=0
voltage_domain=system.cpu1.clk_domain.voltage_domain

[system.cpu1.clk_domain.voltage_domain]
type=VoltageDomain
eventq_index=0
voltage=1.0

[system.cpu1.decoder]
type=X86Decoder
eventq_index=0
isa=system.cpu1.isa

[system.cpu1.interrupts]
type=X86LocalApic
children=clk_domain
clk_domain=system.cpu1.interrupts.clk_domain
eventq_index=0
int_latency=1000
pio_latency=100000
system=system
int_requestor=system.piobus.cpu_side_ports[3]
int_responder=system.piobus.mem_side_ports[5]
pio=system.piobus.mem_side_ports[4]

[system.cpu1.interrupts.clk_domain]
type=DerivedClockDomain
clk_divider=16
clk_domain=system.cpu1.clk_domain
eventq_index=0

[system.cpu1.isa]
type=X86ISA
eventq_index=0
vendor_string=M5 Simulator

[system.cpu1.mmu]
type=X86MMU
children=dtb itb
dtb=system.cpu1.mmu.dtb
eventq_index=0
itb=system.cpu1.mmu.itb

[system.cpu1.mmu.dtb]
type=X86TLB
children=walker
entry_type=data
eventq_index=0
next_level=Null
size=64
system=system
walker=system.cpu1.mmu.dtb.walker

[system.cpu1.mmu.dtb.walker]
type=X86PagetableWalker
children=power_state
clk_domain=system.cpu1.clk_domain
eventq_index=0
num_squash_per_cycle=4
power_model=
power_state=system.cpu1.mmu.dtb.walker.power_state
system=system

[system.cpu1.mmu.dtb.walker.power_state]
type=PowerState
clk_gate_bins=20
clk_gate_max=1000000000000
clk_gate_min=1000
default_state=UNDEFINED
eventq_index=0
leaders=
possible_states=

[system.cpu1.mmu.itb]
type=X86TLB
children=walker
entry_type=instruction
eventq_index=0
next_level=Null
size=64
system=system
walker=system.cpu1.mmu.itb.walker

[system.cpu1.mmu.itb.walker]
type=X86PagetableWalker
children=power_state
clk_domain=system.cpu1.clk_domain
eventq_index=0
num_squash_per_cycle=4
power_model=
power_state=system.cpu1.mmu.itb.walker.power_state
system=system

[system.cpu1.mmu.itb.walker.power_state]
type=PowerState
clk_gate_bins=20
clk_gate_max=1000000000000
clk_gate_min=1000
default_state=UNDEFINED
eventq_index=0
leaders=
possible_states=

[system.cpu1.power_state]
type=PowerState
clk_gate_bins=20
clk_gate_max=1000000000000
clk_gate_min=1000
default_state=UNDEFINED
eventq_index=0
leaders=
possible_states=ON CLK_GATED OFF

[system.cpu1.tracer]
type=ExeTracer
eventq_index=0

[system.cpu2]
type=BaseTimingSimpleCPU
children=clk_domain decoder interrupts isa mmu power_state tracer
branchPred=Null
checker=Null
clk_domain=system.cpu2.clk_domain
cpu_id=2
decoder=system.cpu2.decoder
do_checkpoint_insts=true
do_statistics_insts=true
eventq_index=0
function_trace=false
function_trace_start=0
interrupts=system.cpu2.interrupts
isa=system.cpu2.isa
max_insts_all_threads=0
max_insts_any_thread=0
mmu=system.cpu2.mmu
numThreads=1
power_gating_on_idle=false
power_model=
power_state=system.cpu2.power_state
progress_interval=0
pwr_gating_latency=300
simpoint_start_insts=
socket_id=0
switched_out=false
syscallRetryLatency=10000
system=system
tracer=system.cpu2.tracer
workload=system.cpu0.workload
dcache_port=system.ruby.cp_cntrl1.sequencer.in_ports[1]
icache_port=system.ruby.cp_cntrl1.sequencer.in_ports[0]

[system.cpu2.clk_domain]
type=SrcClockDomain
children=voltage_domain
clock=500
domain_id=-1
eventq_index=0
init_perf_level=0
voltage_domain=system.cpu2.clk_domain.voltage_domain

[system.cpu2.clk_domain.voltage_domain]
type=VoltageDomain
eventq_index=0
voltage=1.0

[system.cpu2.decoder]
type=X86Decoder
eventq_index=0
isa=system.cpu2.isa

[system.cpu2.interrupts]
type=X86LocalApic
children=clk_domain
clk_domain=system.cpu2.interrupts.clk_domain
eventq_index=0
int_latency=1000
pio_latency=100000
system=system
int_requestor=system.piobus.cpu_side_ports[5]
int_responder=system.piobus.mem_side_ports[7]
pio=system.piobus.mem_side_ports[6]

[system.cpu2.interrupts.clk_domain]
type=DerivedClockDomain
clk_divider=16
clk_domain=system.cpu2.clk_domain
eventq_index=0

[system.cpu2.isa]
type=X86ISA
eventq_index=0
vendor_string=M5 Simulator

[system.cpu2.mmu]
type=X86MMU
children=dtb itb
dtb=system.cpu2.mmu.dtb
eventq_index=0
itb=system.cpu2.mmu.itb

[system.cpu2.mmu.dtb]
type=X86TLB
children=walker
entry_type=data
eventq_index=0
next_level=Null
size=64
system=system
walker=system.cpu2.mmu.dtb.walker

[system.cpu2.mmu.dtb.walker]
type=X86PagetableWalker
children=power_state
clk_domain=system.cpu2.clk_domain
eventq_index=0
num_squash_per_cycle=4
power_model=
power_state=system.cpu2.mmu.dtb.walker.power_state
system=system

[system.cpu2.mmu.dtb.walker.power_state]
type=PowerState
clk_gate_bins=20
clk_gate_max=1000000000000
clk_gate_min=1000
default_state=UNDEFINED
eventq_index=0
leaders=
possible_states=

[system.cpu2.mmu.itb]
type=X86TLB
children=walker
entry_type=instruction
eventq_index=0
next_level=Null
size=64
system=system
walker=system.cpu2.mmu.itb.walker

[system.cpu2.mmu.itb.walker]
type=X86PagetableWalker
children=power_state
clk_domain=system.cpu2.clk_domain
eventq_index=0
num_squash_per_cycle=4
power_model=
power_state=system.cpu2.mmu.itb.walker.power_state
system=system

[system.cpu2.mmu.itb.walker.power_state]
type=PowerState
clk_gate_bins=20
clk_gate_max=1000000000000
clk_gate_min=1000
default_state=UNDEFINED
eventq_index=0
leaders=
possible_states=

[system.cpu2.power_state]
type=PowerState
clk_gate_bins=20
clk_gate_max=1000000000000
clk_gate_min=1000
default_state=UNDEFINED
eventq_index=0
leaders=
possible_states=ON CLK_GATED OFF

[system.cpu2.tracer]
type=ExeTracer
eventq_index=0

[system.cpu3]
type=Shader
children=CUs00 CUs01 CUs02 CUs03 CUs04 CUs05 CUs06 CUs07 CUs08 CUs09 CUs10 CUs11 CUs12 CUs13 CUs14 CUs15 CUs16 CUs17 CUs18 CUs19 CUs20 CUs21 CUs22 CUs23 CUs24 CUs25 CUs26 CUs27 CUs28 CUs29 CUs30 CUs31 CUs32 CUs33 CUs34 CUs35 CUs36 CUs37 CUs38 CUs39 CUs40 CUs41 CUs42 CUs43 CUs44 CUs45 CUs46 CUs47 CUs48 CUs49 CUs50 CUs51 CUs52 CUs53 CUs54 CUs55 CUs56 CUs57 CUs58 CUs59 CUs60 CUs61 CUs62 CUs63 clk_domain power_state
CUs=system.cpu3.CUs00 system.cpu3.CUs01 system.cpu3.CUs02 system.cpu3.CUs03 system.cpu3.CUs04 system.cpu3.CUs05 system.cpu3.CUs06 system.cpu3.CUs07 system.cpu3.CUs08 system.cpu3.CUs09 system.cpu3.CUs10 system.cpu3.CUs11 system.cpu3.CUs12 system.cpu3.CUs13 system.cpu3.CUs14 system.cpu3.CUs15 system.cpu3.CUs16 system.cpu3.CUs17 system.cpu3.CUs18 system.cpu3.CUs19 system.cpu3.CUs20 system.cpu3.CUs21 system.cpu3.CUs22 system.cpu3.CUs23 system.cpu3.CUs24 system.cpu3.CUs25 system.cpu3.CUs26 system.cpu3.CUs27 system.cpu3.CUs28 system.cpu3.CUs29 system.cpu3.CUs30 system.cpu3.CUs31 system.cpu3.CUs32 system.cpu3.CUs33 system.cpu3.CUs34 system.cpu3.CUs35 system.cpu3.CUs36 system.cpu3.CUs37 system.cpu3.CUs38 system.cpu3.CUs39 system.cpu3.CUs40 system.cpu3.CUs41 system.cpu3.CUs42 system.cpu3.CUs43 system.cpu3.CUs44 system.cpu3.CUs45 system.cpu3.CUs46 system.cpu3.CUs47 system.cpu3.CUs48 system.cpu3.CUs49 system.cpu3.CUs50 system.cpu3.CUs51 system.cpu3.CUs52 system.cpu3.CUs53 system.cpu3.CUs54 system.cpu3.CUs55 system.cpu3.CUs56 system.cpu3.CUs57 system.cpu3.CUs58 system.cpu3.CUs59 system.cpu3.CUs60 system.cpu3.CUs61 system.cpu3.CUs62 system.cpu3.CUs63
clk_domain=system.cpu3.clk_domain
cpu_pointer=system.cpu0
dispatcher=system.cpu0.workload.drivers0.device.dispatcher
eventq_index=0
globalmem=65536
gpu_cmd_proc=system.cpu0.workload.drivers0.device
idlecu_timeout=0
impl_kern_end_rel=false
impl_kern_launch_acq=true
max_valu_insts=0
n_wf=10
power_model=
power_state=system.cpu3.power_state
system_hub=Null
timer_period=10000000
timing=true
translation=false

[system.cpu3.CUs00]
type=ComputeUnit
children=ldsBus localDataStore power_state register_manager scalar_register_file0 scalar_register_file1 scalar_register_file2 scalar_register_file3 vector_register_file0 vector_register_file1 vector_register_file2 vector_register_file3 wavefronts00 wavefronts01 wavefronts02 wavefronts03 wavefronts04 wavefronts05 wavefronts06 wavefronts07 wavefronts08 wavefronts09 wavefronts10 wavefronts11 wavefronts12 wavefronts13 wavefronts14 wavefronts15 wavefronts16 wavefronts17 wavefronts18 wavefronts19 wavefronts20 wavefronts21 wavefronts22 wavefronts23 wavefronts24 wavefronts25 wavefronts26 wavefronts27 wavefronts28 wavefronts29 wavefronts30 wavefronts31 wavefronts32 wavefronts33 wavefronts34 wavefronts35 wavefronts36 wavefronts37 wavefronts38 wavefronts39
clk_domain=system.cpu3.clk_domain
coalescer_to_vrf_bus_width=32
countPages=false
cu_id=0
debugSegFault=false
dpbypass_pipe_length=4
eventq_index=0
execPolicy=OLDEST-FIRST
fetch_depth=2
functionalTLB=false
global_mem_queue_size=256
issue_period=4
localDataStore=system.cpu3.CUs00.localDataStore
localMemBarrier=false
local_mem_queue_size=256
max_cu_tokens=4
max_wave_requests=64
mem_req_latency=50
mem_resp_latency=50
n_wf=10
num_SIMDs=4
num_barrier_slots=4
num_global_mem_pipes=1
num_scalar_cores=1
num_scalar_mem_pipes=1
num_shared_mem_pipes=1
operand_network_length=1
out_of_order_data_delivery=false
perLaneTLB=false
power_model=
power_state=system.cpu3.CUs00.power_state
prefetch_depth=0
prefetch_prev_type=PF_PHASE
prefetch_stride=1
register_manager=system.cpu3.CUs00.register_manager
scalar_mem_queue_size=32
scalar_pipe_length=1
scalar_register_file=system.cpu3.CUs00.scalar_register_file0 system.cpu3.CUs00.scalar_register_file1 system.cpu3.CUs00.scalar_register_file2 system.cpu3.CUs00.scalar_register_file3
simd_width=16
spbypass_pipe_length=4
srf_scm_bus_latency=1
system=system
vector_register_file=system.cpu3.CUs00.vector_register_file0 system.cpu3.CUs00.vector_register_file1 system.cpu3.CUs00.vector_register_file2 system.cpu3.CUs00.vector_register_file3
vrf_gm_bus_latency=1
vrf_lm_bus_latency=1
vrf_to_coalescer_bus_width=32
wavefronts=system.cpu3.CUs00.wavefronts00 system.cpu3.CUs00.wavefronts01 system.cpu3.CUs00.wavefronts02 system.cpu3.CUs00.wavefronts03 system.cpu3.CUs00.wavefronts04 system.cpu3.CUs00.wavefronts05 system.cpu3.CUs00.wavefronts06 system.cpu3.CUs00.wavefronts07 system.cpu3.CUs00.wavefronts08 system.cpu3.CUs00.wavefronts09 system.cpu3.CUs00.wavefronts10 system.cpu3.CUs00.wavefronts11 system.cpu3.CUs00.wavefronts12 system.cpu3.CUs00.wavefronts13 system.cpu3.CUs00.wavefronts14 system.cpu3.CUs00.wavefronts15 system.cpu3.CUs00.wavefronts16 system.cpu3.CUs00.wavefronts17 system.cpu3.CUs00.wavefronts18 system.cpu3.CUs00.wavefronts19 system.cpu3.CUs00.wavefronts20 system.cpu3.CUs00.wavefronts21 system.cpu3.CUs00.wavefronts22 system.cpu3.CUs00.wavefronts23 system.cpu3.CUs00.wavefronts24 system.cpu3.CUs00.wavefronts25 system.cpu3.CUs00.wavefronts26 system.cpu3.CUs00.wavefronts27 system.cpu3.CUs00.wavefronts28 system.cpu3.CUs00.wavefronts29 system.cpu3.CUs00.wavefronts30 system.cpu3.CUs00.wavefronts31 system.cpu3.CUs00.wavefronts32 system.cpu3.CUs00.wavefronts33 system.cpu3.CUs00.wavefronts34 system.cpu3.CUs00.wavefronts35 system.cpu3.CUs00.wavefronts36 system.cpu3.CUs00.wavefronts37 system.cpu3.CUs00.wavefronts38 system.cpu3.CUs00.wavefronts39
wf_size=64
gmTokenPort=system.ruby.tcp_cntrl0.coalescer.gmTokenPort
ldsPort=system.cpu3.CUs00.ldsBus.cpu_side_port
memory_port=system.ruby.tcp_cntrl0.coalescer.in_ports[0] system.ruby.tcp_cntrl0.coalescer.in_ports[1] system.ruby.tcp_cntrl0.coalescer.in_ports[2] system.ruby.tcp_cntrl0.coalescer.in_ports[3] system.ruby.tcp_cntrl0.coalescer.in_ports[4] system.ruby.tcp_cntrl0.coalescer.in_ports[5] system.ruby.tcp_cntrl0.coalescer.in_ports[6] system.ruby.tcp_cntrl0.coalescer.in_ports[7] system.ruby.tcp_cntrl0.coalescer.in_ports[8] system.ruby.tcp_cntrl0.coalescer.in_ports[9] system.ruby.tcp_cntrl0.coalescer.in_ports[10] system.ruby.tcp_cntrl0.coalescer.in_ports[11] system.ruby.tcp_cntrl0.coalescer.in_ports[12] system.ruby.tcp_cntrl0.coalescer.in_ports[13] system.ruby.tcp_cntrl0.coalescer.in_ports[14] system.ruby.tcp_cntrl0.coalescer.in_ports[15] system.ruby.tcp_cntrl0.coalescer.in_ports[16] system.ruby.tcp_cntrl0.coalescer.in_ports[17] system.ruby.tcp_cntrl0.coalescer.in_ports[18] system.ruby.tcp_cntrl0.coalescer.in_ports[19] system.ruby.tcp_cntrl0.coalescer.in_ports[20] system.ruby.tcp_cntrl0.coalescer.in_ports[21] system.ruby.tcp_cntrl0.coalescer.in_ports[22] system.ruby.tcp_cntrl0.coalescer.in_ports[23] system.ruby.tcp_cntrl0.coalescer.in_ports[24] system.ruby.tcp_cntrl0.coalescer.in_ports[25] system.ruby.tcp_cntrl0.coalescer.in_ports[26] system.ruby.tcp_cntrl0.coalescer.in_ports[27] system.ruby.tcp_cntrl0.coalescer.in_ports[28] system.ruby.tcp_cntrl0.coalescer.in_ports[29] system.ruby.tcp_cntrl0.coalescer.in_ports[30] system.ruby.tcp_cntrl0.coalescer.in_ports[31] system.ruby.tcp_cntrl0.coalescer.in_ports[32] system.ruby.tcp_cntrl0.coalescer.in_ports[33] system.ruby.tcp_cntrl0.coalescer.in_ports[34] system.ruby.tcp_cntrl0.coalescer.in_ports[35] system.ruby.tcp_cntrl0.coalescer.in_ports[36] system.ruby.tcp_cntrl0.coalescer.in_ports[37] system.ruby.tcp_cntrl0.coalescer.in_ports[38] system.ruby.tcp_cntrl0.coalescer.in_ports[39] system.ruby.tcp_cntrl0.coalescer.in_ports[40] system.ruby.tcp_cntrl0.coalescer.in_ports[41] system.ruby.tcp_cntrl0.coalescer.in_ports[42] system.ruby.tcp_cntrl0.coalescer.in_ports[43] system.ruby.tcp_cntrl0.coalescer.in_ports[44] system.ruby.tcp_cntrl0.coalescer.in_ports[45] system.ruby.tcp_cntrl0.coalescer.in_ports[46] system.ruby.tcp_cntrl0.coalescer.in_ports[47] system.ruby.tcp_cntrl0.coalescer.in_ports[48] system.ruby.tcp_cntrl0.coalescer.in_ports[49] system.ruby.tcp_cntrl0.coalescer.in_ports[50] system.ruby.tcp_cntrl0.coalescer.in_ports[51] system.ruby.tcp_cntrl0.coalescer.in_ports[52] system.ruby.tcp_cntrl0.coalescer.in_ports[53] system.ruby.tcp_cntrl0.coalescer.in_ports[54] system.ruby.tcp_cntrl0.coalescer.in_ports[55] system.ruby.tcp_cntrl0.coalescer.in_ports[56] system.ruby.tcp_cntrl0.coalescer.in_ports[57] system.ruby.tcp_cntrl0.coalescer.in_ports[58] system.ruby.tcp_cntrl0.coalescer.in_ports[59] system.ruby.tcp_cntrl0.coalescer.in_ports[60] system.ruby.tcp_cntrl0.coalescer.in_ports[61] system.ruby.tcp_cntrl0.coalescer.in_ports[62] system.ruby.tcp_cntrl0.coalescer.in_ports[63]
scalar_port=system.ruby.scalar_cntrl0.sequencer.in_ports[0]
scalar_tlb_port=system.scalar_coalescer00.cpu_side_ports[0]
sqc_port=system.ruby.sqc_cntrl0.sequencer.in_ports[0]
sqc_tlb_port=system.sqc_coalescer00.cpu_side_ports[0]
translation_port=system.l1_coalescer00.cpu_side_ports[0]

[system.cpu3.CUs00.ldsBus]
type=Bridge
children=power_state
clk_domain=system.cpu3.clk_domain
delay=0
eventq_index=0
power_model=
power_state=system.cpu3.CUs00.ldsBus.power_state
ranges=0:18446744073709551615
req_size=16
resp_size=16
cpu_side_port=system.cpu3.CUs00.ldsPort
mem_side_port=system.cpu3.CUs00.localDataStore.cuPort

[system.cpu3.CUs00.ldsBus.power_state]
type=PowerState
clk_gate_bins=20
clk_gate_max=1000000000000
clk_gate_min=1000
default_state=UNDEFINED
eventq_index=0
leaders=
possible_states=

[system.cpu3.CUs00.localDataStore]
type=LdsState
children=power_state
bankConflictPenalty=1
banks=32
clk_domain=system.cpu3.clk_domain
eventq_index=0
power_model=
power_state=system.cpu3.CUs00.localDataStore.power_state
range=0:65536
size=65536
cuPort=system.cpu3.CUs00.ldsBus.mem_side_port

[system.cpu3.CUs00.localDataStore.power_state]
type=PowerState
clk_gate_bins=20
clk_gate_max=1000000000000
clk_gate_min=1000
default_state=UNDEFINED
eventq_index=0
leaders=
possible_states=

[system.cpu3.CUs00.power_state]
type=PowerState
clk_gate_bins=20
clk_gate_max=1000000000000
clk_gate_min=1000
default_state=UNDEFINED
eventq_index=0
leaders=
possible_states=

[system.cpu3.CUs00.register_manager]
type=RegisterManager
children=srf_pool_managers0 srf_pool_managers1 srf_pool_managers2 srf_pool_managers3 vrf_pool_managers0 vrf_pool_managers1 vrf_pool_managers2 vrf_pool_managers3
eventq_index=0
policy=static
srf_pool_managers=system.cpu3.CUs00.register_manager.srf_pool_managers0 system.cpu3.CUs00.register_manager.srf_pool_managers1 system.cpu3.CUs00.register_manager.srf_pool_managers2 system.cpu3.CUs00.register_manager.srf_pool_managers3
vrf_pool_managers=system.cpu3.CUs00.register_manager.vrf_pool_managers0 system.cpu3.CUs00.register_manager.vrf_pool_managers1 system.cpu3.CUs00.register_manager.vrf_pool_managers2 system.cpu3.CUs00.register_manager.vrf_pool_managers3

[system.cpu3.CUs00.register_manager.srf_pool_managers0]
type=DynPoolManager
eventq_index=0
min_alloc=4
pool_size=800

[system.cpu3.CUs00.register_manager.srf_pool_managers1]
type=DynPoolManager
eventq_index=0
min_alloc=4
pool_size=800

[system.cpu3.CUs00.register_manager.srf_pool_managers2]
type=DynPoolManager
eventq_index=0
min_alloc=4
pool_size=800

[system.cpu3.CUs00.register_manager.srf_pool_managers3]
type=DynPoolManager
eventq_index=0
min_alloc=4
pool_size=800

[system.cpu3.CUs00.register_manager.vrf_pool_managers0]