[root]
type=Root
children=system
eventq_index=0
full_system=true
sim_quantum=0
time_sync_enable=true
time_sync_period=1000000000
time_sync_spin_threshold=100000000

[system]
type=System
children=clk_domain cpu Shader cpu_clk_domain cpu_voltage_domain dma_cntrls00 dma_cntrls01 dma_cntrls02 dma_cntrls03 dma_cntrls04 dma_cntrls05 dma_cntrls06 dma_cntrls07 dma_cntrls08 dma_cntrls09 dma_cntrls10 dma_cntrls11 dma_cntrls12 dma_cntrls13 dma_cntrls14 dvfs_handler gpu_mem_ctrls iobus kvm_vm l1_coalescer0 l1_coalescer1 l1_coalescer2 l1_coalescer3 l1_tlb0 l1_tlb1 l1_tlb2 l1_tlb3 l2_coalescer l2_tlb l3_coalescer l3_tlb mem_ctrls pc ruby scalar_coalescer scalar_tlb sqc_coalescer sqc_tlb sys_port_proxy voltage_domain workload
auto_unlink_shared_backstore=false
cache_line_size=64
eventq_index=0
exit_on_work_items=false
init_param=0
m5ops_base=4294901760
mem_mode=atomic_noncaching
mem_ranges=0:3221225472
memories=system.mem_ctrls.dram
mmap_using_noreserve=false
multi_thread=false
num_work_ids=16
readfile=/tmp/tmpy7bsaosj
redirect_paths=
shadow_rom_ranges=786432:917504
shared_backstore=
symbolfile=
thermal_components=
thermal_model=Null
work_begin_ckpt_count=0
work_begin_cpu_id_exit=-1
work_begin_exit_count=0
work_cpus_ckpt_count=0
work_end_ckpt_count=0
work_end_exit_count=0
work_item_id=-1
workload=system.workload
system_port=system.sys_port_proxy.in_ports[0]

[system.Shader]
type=Shader
children=CUs0 CUs1 CUs2 CUs3 gpu_cmd_proc power_state system_hub
CUs=system.Shader.CUs0 system.Shader.CUs1 system.Shader.CUs2 system.Shader.CUs3
clk_domain=system.clk_domain
cpu_pointer=system.cpu
dispatcher=system.Shader.gpu_cmd_proc.dispatcher
eventq_index=0
globalmem=65536
gpu_cmd_proc=system.Shader.gpu_cmd_proc
idlecu_timeout=0
impl_kern_end_rel=false
impl_kern_launch_acq=true
max_valu_insts=0
n_wf=10
power_model=
power_state=system.Shader.power_state
system_hub=system.Shader.system_hub
timer_period=10000000
timing=true
translation=false

[system.Shader.CUs0]
type=ComputeUnit
children=ldsBus localDataStore power_state register_manager scalar_register_file0 scalar_register_file1 scalar_register_file2 scalar_register_file3 vector_register_file0 vector_register_file1 vector_register_file2 vector_register_file3 wavefronts00 wavefronts01 wavefronts02 wavefronts03 wavefronts04 wavefronts05 wavefronts06 wavefronts07 wavefronts08 wavefronts09 wavefronts10 wavefronts11 wavefronts12 wavefronts13 wavefronts14 wavefronts15 wavefronts16 wavefronts17 wavefronts18 wavefronts19 wavefronts20 wavefronts21 wavefronts22 wavefronts23 wavefronts24 wavefronts25 wavefronts26 wavefronts27 wavefronts28 wavefronts29 wavefronts30 wavefronts31 wavefronts32 wavefronts33 wavefronts34 wavefronts35 wavefronts36 wavefronts37 wavefronts38 wavefronts39
clk_domain=system.clk_domain
coalescer_to_vrf_bus_width=32
countPages=false
cu_id=0
debugSegFault=false
dpbypass_pipe_length=4
eventq_index=0
execPolicy=OLDEST-FIRST
fetch_depth=2
functionalTLB=false
global_mem_queue_size=256
issue_period=4
localDataStore=system.Shader.CUs0.localDataStore
localMemBarrier=false
local_mem_queue_size=256
max_cu_tokens=4
max_wave_requests=64
mem_req_latency=50
mem_resp_latency=50
n_wf=10
num_SIMDs=4
num_barrier_slots=4
num_global_mem_pipes=1
num_scalar_cores=1
num_scalar_mem_pipes=1
num_shared_mem_pipes=1
operand_network_length=1
out_of_order_data_delivery=false
perLaneTLB=false
power_model=
power_state=system.Shader.CUs0.power_state
prefetch_depth=0
prefetch_prev_type=PF_PHASE
prefetch_stride=1
register_manager=system.Shader.CUs0.register_manager
scalar_mem_queue_size=32
scalar_pipe_length=1
scalar_register_file=system.Shader.CUs0.scalar_register_file0 system.Shader.CUs0.scalar_register_file1 system.Shader.CUs0.scalar_register_file2 system.Shader.CUs0.scalar_register_file3
simd_width=16
spbypass_pipe_length=4
srf_scm_bus_latency=1
system=system
vector_register_file=system.Shader.CUs0.vector_register_file0 system.Shader.CUs0.vector_register_file1 system.Shader.CUs0.vector_register_file2 system.Shader.CUs0.vector_register_file3
vrf_gm_bus_latency=1
vrf_lm_bus_latency=1
vrf_to_coalescer_bus_width=32
wavefronts=system.Shader.CUs0.wavefronts00 system.Shader.CUs0.wavefronts01 system.Shader.CUs0.wavefronts02 system.Shader.CUs0.wavefronts03 system.Shader.CUs0.wavefronts04 system.Shader.CUs0.wavefronts05 system.Shader.CUs0.wavefronts06 system.Shader.CUs0.wavefronts07 system.Shader.CUs0.wavefronts08 system.Shader.CUs0.wavefronts09 system.Shader.CUs0.wavefronts10 system.Shader.CUs0.wavefronts11 system.Shader.CUs0.wavefronts12 system.Shader.CUs0.wavefronts13 system.Shader.CUs0.wavefronts14 system.Shader.CUs0.wavefronts15 system.Shader.CUs0.wavefronts16 system.Shader.CUs0.wavefronts17 system.Shader.CUs0.wavefronts18 system.Shader.CUs0.wavefronts19 system.Shader.CUs0.wavefronts20 system.Shader.CUs0.wavefronts21 system.Shader.CUs0.wavefronts22 system.Shader.CUs0.wavefronts23 system.Shader.CUs0.wavefronts24 system.Shader.CUs0.wavefronts25 system.Shader.CUs0.wavefronts26 system.Shader.CUs0.wavefronts27 system.Shader.CUs0.wavefronts28 system.Shader.CUs0.wavefronts29 system.Shader.CUs0.wavefronts30 system.Shader.CUs0.wavefronts31 system.Shader.CUs0.wavefronts32 system.Shader.CUs0.wavefronts33 system.Shader.CUs0.wavefronts34 system.Shader.CUs0.wavefronts35 system.Shader.CUs0.wavefronts36 system.Shader.CUs0.wavefronts37 system.Shader.CUs0.wavefronts38 system.Shader.CUs0.wavefronts39
wf_size=64
gmTokenPort=system.ruby.tcp_cntrl0.coalescer.gmTokenPort
ldsPort=system.Shader.CUs0.ldsBus.cpu_side_port
memory_port=system.ruby.tcp_cntrl0.coalescer.in_ports[0] system.ruby.tcp_cntrl0.coalescer.in_ports[1] system.ruby.tcp_cntrl0.coalescer.in_ports[2] system.ruby.tcp_cntrl0.coalescer.in_ports[3] system.ruby.tcp_cntrl0.coalescer.in_ports[4] system.ruby.tcp_cntrl0.coalescer.in_ports[5] system.ruby.tcp_cntrl0.coalescer.in_ports[6] system.ruby.tcp_cntrl0.coalescer.in_ports[7] system.ruby.tcp_cntrl0.coalescer.in_ports[8] system.ruby.tcp_cntrl0.coalescer.in_ports[9] system.ruby.tcp_cntrl0.coalescer.in_ports[10] system.ruby.tcp_cntrl0.coalescer.in_ports[11] system.ruby.tcp_cntrl0.coalescer.in_ports[12] system.ruby.tcp_cntrl0.coalescer.in_ports[13] system.ruby.tcp_cntrl0.coalescer.in_ports[14] system.ruby.tcp_cntrl0.coalescer.in_ports[15] system.ruby.tcp_cntrl0.coalescer.in_ports[16] system.ruby.tcp_cntrl0.coalescer.in_ports[17] system.ruby.tcp_cntrl0.coalescer.in_ports[18] system.ruby.tcp_cntrl0.coalescer.in_ports[19] system.ruby.tcp_cntrl0.coalescer.in_ports[20] system.ruby.tcp_cntrl0.coalescer.in_ports[21] system.ruby.tcp_cntrl0.coalescer.in_ports[22] system.ruby.tcp_cntrl0.coalescer.in_ports[23] system.ruby.tcp_cntrl0.coalescer.in_ports[24] system.ruby.tcp_cntrl0.coalescer.in_ports[25] system.ruby.tcp_cntrl0.coalescer.in_ports[26] system.ruby.tcp_cntrl0.coalescer.in_ports[27] system.ruby.tcp_cntrl0.coalescer.in_ports[28] system.ruby.tcp_cntrl0.coalescer.in_ports[29] system.ruby.tcp_cntrl0.coalescer.in_ports[30] system.ruby.tcp_cntrl0.coalescer.in_ports[31] system.ruby.tcp_cntrl0.coalescer.in_ports[32] system.ruby.tcp_cntrl0.coalescer.in_ports[33] system.ruby.tcp_cntrl0.coalescer.in_ports[34] system.ruby.tcp_cntrl0.coalescer.in_ports[35] system.ruby.tcp_cntrl0.coalescer.in_ports[36] system.ruby.tcp_cntrl0.coalescer.in_ports[37] system.ruby.tcp_cntrl0.coalescer.in_ports[38] system.ruby.tcp_cntrl0.coalescer.in_ports[39] system.ruby.tcp_cntrl0.coalescer.in_ports[40] system.ruby.tcp_cntrl0.coalescer.in_ports[41] system.ruby.tcp_cntrl0.coalescer.in_ports[42] system.ruby.tcp_cntrl0.coalescer.in_ports[43] system.ruby.tcp_cntrl0.coalescer.in_ports[44] system.ruby.tcp_cntrl0.coalescer.in_ports[45] system.ruby.tcp_cntrl0.coalescer.in_ports[46] system.ruby.tcp_cntrl0.coalescer.in_ports[47] system.ruby.tcp_cntrl0.coalescer.in_ports[48] system.ruby.tcp_cntrl0.coalescer.in_ports[49] system.ruby.tcp_cntrl0.coalescer.in_ports[50] system.ruby.tcp_cntrl0.coalescer.in_ports[51] system.ruby.tcp_cntrl0.coalescer.in_ports[52] system.ruby.tcp_cntrl0.coalescer.in_ports[53] system.ruby.tcp_cntrl0.coalescer.in_ports[54] system.ruby.tcp_cntrl0.coalescer.in_ports[55] system.ruby.tcp_cntrl0.coalescer.in_ports[56] system.ruby.tcp_cntrl0.coalescer.in_ports[57] system.ruby.tcp_cntrl0.coalescer.in_ports[58] system.ruby.tcp_cntrl0.coalescer.in_ports[59] system.ruby.tcp_cntrl0.coalescer.in_ports[60] system.ruby.tcp_cntrl0.coalescer.in_ports[61] system.ruby.tcp_cntrl0.coalescer.in_ports[62] system.ruby.tcp_cntrl0.coalescer.in_ports[63]
scalar_port=system.ruby.scalar_cntrl0.sequencer.in_ports[0]
scalar_tlb_port=system.scalar_coalescer.cpu_side_ports[0]
sqc_port=system.ruby.sqc_cntrl0.sequencer.in_ports[0]
sqc_tlb_port=system.sqc_coalescer.cpu_side_ports[0]
translation_port=system.l1_coalescer0.cpu_side_ports[0]

[system.Shader.CUs0.ldsBus]
type=Bridge
children=power_state
clk_domain=system.clk_domain
delay=0
eventq_index=0
power_model=
power_state=system.Shader.CUs0.ldsBus.power_state
ranges=0:18446744073709551615
req_size=16
resp_size=16
cpu_side_port=system.Shader.CUs0.ldsPort
mem_side_port=system.Shader.CUs0.localDataStore.cuPort

[system.Shader.CUs0.ldsBus.power_state]
type=PowerState
clk_gate_bins=20
clk_gate_max=1000000000000
clk_gate_min=1000
default_state=UNDEFINED
eventq_index=0
leaders=
possible_states=

[system.Shader.CUs0.localDataStore]
type=LdsState
children=power_state
bankConflictPenalty=1
banks=32
clk_domain=system.clk_domain
eventq_index=0
power_model=
power_state=system.Shader.CUs0.localDataStore.power_state
range=0:65536
size=65536
cuPort=system.Shader.CUs0.ldsBus.mem_side_port

[system.Shader.CUs0.localDataStore.power_state]
type=PowerState
clk_gate_bins=20
clk_gate_max=1000000000000
clk_gate_min=1000
default_state=UNDEFINED
eventq_index=0
leaders=
possible_states=

[system.Shader.CUs0.power_state]
type=PowerState
clk_gate_bins=20
clk_gate_max=1000000000000
clk_gate_min=1000
default_state=UNDEFINED
eventq_index=0
leaders=
possible_states=

[system.Shader.CUs0.register_manager]
type=RegisterManager
children=srf_pool_managers0 srf_pool_managers1 srf_pool_managers2 srf_pool_managers3 vrf_pool_managers0 vrf_pool_managers1 vrf_pool_managers2 vrf_pool_managers3
eventq_index=0
policy=static
srf_pool_managers=system.Shader.CUs0.register_manager.srf_pool_managers0 system.Shader.CUs0.register_manager.srf_pool_managers1 system.Shader.CUs0.register_manager.srf_pool_managers2 system.Shader.CUs0.register_manager.srf_pool_managers3
vrf_pool_managers=system.Shader.CUs0.register_manager.vrf_pool_managers0 system.Shader.CUs0.register_manager.vrf_pool_managers1 system.Shader.CUs0.register_manager.vrf_pool_managers2 system.Shader.CUs0.register_manager.vrf_pool_managers3

[system.Shader.CUs0.register_manager.srf_pool_managers0]
type=SimplePoolManager
eventq_index=0
min_alloc=4
pool_size=2048

[system.Shader.CUs0.register_manager.srf_pool_managers1]
type=SimplePoolManager
eventq_index=0
min_alloc=4
pool_size=2048

[system.Shader.CUs0.register_manager.srf_pool_managers2]
type=SimplePoolManager
eventq_index=0
min_alloc=4
pool_size=2048

[system.Shader.CUs0.register_manager.srf_pool_managers3]
type=SimplePoolManager
eventq_index=0
min_alloc=4
pool_size=2048

[system.Shader.CUs0.register_manager.vrf_pool_managers0]
type=SimplePoolManager
eventq_index=0
min_alloc=4
pool_size=2048

[system.Shader.CUs0.register_manager.vrf_pool_managers1]
type=SimplePoolManager
eventq_index=0
min_alloc=4
pool_size=2048

[system.Shader.CUs0.register_manager.vrf_pool_managers2]
type=SimplePoolManager
eventq_index=0
min_alloc=4
pool_size=2048

[system.Shader.CUs0.register_manager.vrf_pool_managers3]
type=SimplePoolManager
eventq_index=0
min_alloc=4
pool_size=2048

[system.Shader.CUs0.scalar_register_file0]
type=ScalarRegisterFile
eventq_index=0
num_regs=2048
simd_id=0
wf_size=64

[system.Shader.CUs0.scalar_register_file1]
type=ScalarRegisterFile
eventq_index=0
num_regs=2048
simd_id=1
wf_size=64

[system.Shader.CUs0.scalar_register_file2]
type=ScalarRegisterFile
eventq_index=0
num_regs=2048
simd_id=2
wf_size=64

[system.Shader.CUs0.scalar_register_file3]
type=ScalarRegisterFile
eventq_index=0
num_regs=2048
simd_id=3
wf_size=64

[system.Shader.CUs0.vector_register_file0]
type=VectorRegisterFile
eventq_index=0
num_regs=2048
simd_id=0
wf_size=64

[system.Shader.CUs0.vector_register_file1]
type=VectorRegisterFile
eventq_index=0
num_regs=2048
simd_id=1
wf_size=64

[system.Shader.CUs0.vector_register_file2]
type=VectorRegisterFile
eventq_index=0
num_regs=2048
simd_id=2
wf_size=64

[system.Shader.CUs0.vector_register_file3]
type=VectorRegisterFile
eventq_index=0
num_regs=2048
simd_id=3
wf_size=64

[system.Shader.CUs0.wavefronts00]
type=Wavefront
eventq_index=0
max_ib_size=13
simdId=0
wf_size=64
wf_slot_id=0

[system.Shader.CUs0.wavefronts01]
type=Wavefront
eventq_index=0
max_ib_size=13
simdId=0
wf_size=64
wf_slot_id=1

[system.Shader.CUs0.wavefronts02]
type=Wavefront
eventq_index=0
max_ib_size=13
simdId=0
wf_size=64
wf_slot_id=2

[system.Shader.CUs0.wavefronts03]
type=Wavefront
eventq_index=0
max_ib_size=13
simdId=0
wf_size=64
wf_slot_id=3

[system.Shader.CUs0.wavefronts04]
type=Wavefront
eventq_index=0
max_ib_size=13
simdId=0
wf_size=64
wf_slot_id=4

[system.Shader.CUs0.wavefronts05]
type=Wavefront
eventq_index=0
max_ib_size=13
simdId=0
wf_size=64
wf_slot_id=5

[system.Shader.CUs0.wavefronts06]
type=Wavefront
eventq_index=0
max_ib_size=13
simdId=0
wf_size=64
wf_slot_id=6

[system.Shader.CUs0.wavefronts07]
type=Wavefront
eventq_index=0
max_ib_size=13
simdId=0
wf_size=64
wf_slot_id=7

[system.Shader.CUs0.wavefronts08]
type=Wavefront
eventq_index=0
max_ib_size=13
simdId=0
wf_size=64
wf_slot_id=8

[system.Shader.CUs0.wavefronts09]
type=Wavefront
eventq_index=0
max_ib_size=13
simdId=0
wf_size=64
wf_slot_id=9

[system.Shader.CUs0.wavefronts10]
type=Wavefront
eventq_index=0
max_ib_size=13
simdId=1
wf_size=64
wf_slot_id=0

[system.Shader.CUs0.wavefronts11]
type=Wavefront
eventq_index=0
max_ib_size=13
simdId=1
wf_size=64
wf_slot_id=1

[system.Shader.CUs0.wavefronts12]
type=Wavefront
eventq_index=0
max_ib_size=13
simdId=1
wf_size=64
wf_slot_id=2

[system.Shader.CUs0.wavefronts13]
type=Wavefront
eventq_index=0
max_ib_size=13
simdId=1
wf_size=64
wf_slot_id=3

[system.Shader.CUs0.wavefronts14]
type=Wavefront
eventq_index=0
max_ib_size=13
simdId=1
wf_size=64
wf_slot_id=4

[system.Shader.CUs0.wavefronts15]
type=Wavefront
eventq_index=0
max_ib_size=13
simdId=1
wf_size=64
wf_slot_id=5

[system.Shader.CUs0.wavefronts16]
type=Wavefront
eventq_index=0
max_ib_size=13
simdId=1
wf_size=64
wf_slot_id=6

[system.Shader.CUs0.wavefronts17]
type=Wavefront
eventq_index=0
max_ib_size=13
simdId=1
wf_size=64
wf_slot_id=7

[system.Shader.CUs0.wavefronts18]
type=Wavefront
eventq_index=0
max_ib_size=13
simdId=1
wf_size=64
wf_slot_id=8

[system.Shader.CUs0.wavefronts19]
type=Wavefront
eventq_index=0
max_ib_size=13
simdId=1
wf_size=64
wf_slot_id=9

[system.Shader.CUs0.wavefronts20]
type=Wavefront
eventq_index=0
max_ib_size=13
simdId=2
wf_size=64
wf_slot_id=0

[system.Shader.CUs0.wavefronts21]
type=Wavefront
eventq_index=0
max_ib_size=13
simdId=2
wf_size=64
wf_slot_id=1

[system.Shader.CUs0.wavefronts22]
type=Wavefront
eventq_index=0
max_ib_size=13
simdId=2
wf_size=64
wf_slot_id=2

[system.Shader.CUs0.wavefronts23]
type=Wavefront
eventq_index=0
max_ib_size=13
simdId=2
wf_size=64
wf_slot_id=3

[system.Shader.CUs0.wavefronts24]
type=Wavefront
eventq_index=0
max_ib_size=13
simdId=2
wf_size=64
wf_slot_id=4

[system.Shader.CUs0.wavefronts25]
type=Wavefront
eventq_index=0
max_ib_size=13
simdId=2
wf_size=64
wf_slot_id=5

[system.Shader.CUs0.wavefronts26]
type=Wavefront
eventq_index=0
max_ib_size=13
simdId=2
wf_size=64
wf_slot_id=6

[system.Shader.CUs0.wavefronts27]
type=Wavefront
eventq_index=0
max_ib_size=13
simdId=2
wf_size=64
wf_slot_id=7

[system.Shader.CUs0.wavefronts28]
type=Wavefront
eventq_index=0
max_ib_size=13
simdId=2
wf_size=64
wf_slot_id=8

[system.Shader.CUs0.wavefronts29]
type=Wavefront
eventq_index=0
max_ib_size=13
simdId=2
wf_size=64
wf_slot_id=9

[system.Shader.CUs0.wavefronts30]
type=Wavefront
eventq_index=0
max_ib_size=13
simdId=3
wf_size=64
wf_slot_id=0

[system.Shader.CUs0.wavefronts31]
type=Wavefront
eventq_index=0
max_ib_size=13
simdId=3
wf_size=64
wf_slot_id=1

[system.Shader.CUs0.wavefronts32]
type=Wavefront
eventq_index=0
max_ib_size=13
simdId=3
wf_size=64
wf_slot_id=2

[system.Shader.CUs0.wavefronts33]
type=Wavefront
eventq_index=0
max_ib_size=13
simdId=3
wf_size=64
wf_slot_id=3

[system.Shader.CUs0.wavefronts34]
type=Wavefront
eventq_index=0
max_ib_size=13
simdId=3
wf_size=64
wf_slot_id=4

[system.Shader.CUs0.wavefronts35]
type=Wavefront
eventq_index=0
max_ib_size=13
simdId=3
wf_size=64
wf_slot_id=5

[system.Shader.CUs0.wavefronts36]
type=Wavefront
eventq_index=0
max_ib_size=13
simdId=3
wf_size=64
wf_slot_id=6

[system.Shader.CUs0.wavefronts37]
type=Wavefront
eventq_index=0
max_ib_size=13
simdId=3
wf_size=64
wf_slot_id=7

[system.Shader.CUs0.wavefronts38]
type=Wavefront
eventq_index=0
max_ib_size=13
simdId=3
wf_size=64
wf_slot_id=8

[system.Shader.CUs0.wavefronts39]
type=Wavefront
eventq_index=0
max_ib_size=13
simdId=3
wf_size=64
wf_slot_id=9

[system.Shader.CUs1]
type=ComputeUnit
children=ldsBus localDataStore power_state register_manager scalar_register_file0 scalar_register_file1 scalar_register_file2 scalar_register_file3 vector_register_file0 vector_register_file1 vector_register_file2 vector_register_file3 wavefronts00 wavefronts01 wavefronts02 wavefronts03 wavefronts04 wavefronts05 wavefronts06 wavefronts07 wavefronts08 wavefronts09 wavefronts10 wavefronts11 wavefronts12 wavefronts13 wavefronts14 wavefronts15 wavefronts16 wavefronts17 wavefronts18 wavefronts19 wavefronts20 wavefronts21 wavefronts22 wavefronts23 wavefronts24 wavefronts25 wavefronts26 wavefronts27 wavefronts28 wavefronts29 wavefronts30 wavefronts31 wavefronts32 wavefronts33 wavefronts34 wavefronts35 wavefronts36 wavefronts37 wavefronts38 wavefronts39
clk_domain=system.clk_domain
coalescer_to_vrf_bus_width=32
countPages=false
cu_id=1
debugSegFault=false
dpbypass_pipe_length=4
eventq_index=0
execPolicy=OLDEST-FIRST
fetch_depth=2
functionalTLB=false
global_mem_queue_size=256
issue_period=4
localDataStore=system.Shader.CUs1.localDataStore
localMemBarrier=false
local_mem_queue_size=256
max_cu_tokens=4
max_wave_requests=64
mem_req_latency=50
mem_resp_latency=50
n_wf=10
num_SIMDs=4
num_barrier_slots=4
num_global_mem_pipes=1
num_scalar_cores=1
num_scalar_mem_pipes=1
num_shared_mem_pipes=1
operand_network_length=1
out_of_order_data_delivery=false
perLaneTLB=false
power_model=
power_state=system.Shader.CUs1.power_state
prefetch_depth=0
prefetch_prev_type=PF_PHASE
prefetch_stride=1
register_manager=system.Shader.CUs1.register_manager
scalar_mem_queue_size=32
scalar_pipe_length=1
scalar_register_file=system.Shader.CUs1.scalar_register_file0 system.Shader.CUs1.scalar_register_file1 system.Shader.CUs1.scalar_register_file2 system.Shader.CUs1.scalar_register_file3
simd_width=16
spbypass_pipe_length=4
srf_scm_bus_latency=1
system=system
vector_register_file=system.Shader.CUs1.vector_register_file0 system.Shader.CUs1.vector_register_file1 system.Shader.CUs1.vector_register_file2 system.Shader.CUs1.vector_register_file3
vrf_gm_bus_latency=1
vrf_lm_bus_latency=1
vrf_to_coalescer_bus_width=32
wavefronts=system.Shader.CUs1.wavefronts00 system.Shader.CUs1.wavefronts01 system.Shader.CUs1.wavefronts02 system.Shader.CUs1.wavefronts03 system.Shader.CUs1.wavefronts04 system.Shader.CUs1.wavefronts05 system.Shader.CUs1.wavefronts06 system.Shader.CUs1.wavefronts07 system.Shader.CUs1.wavefronts08 system.Shader.CUs1.wavefronts09 system.Shader.CUs1.wavefronts10 system.Shader.CUs1.wavefronts11 system.Shader.CUs1.wavefronts12 system.Shader.CUs1.wavefronts13 system.Shader.CUs1.wavefronts14 system.Shader.CUs1.wavefronts15 system.Shader.CUs1.wavefronts16 system.Shader.CUs1.wavefronts17 system.Shader.CUs1.wavefronts18 system.Shader.CUs1.wavefronts19 system.Shader.CUs1.wavefronts20 system.Shader.CUs1.wavefronts21 system.Shader.CUs1.wavefronts22 system.Shader.CUs1.wavefronts23 system.Shader.CUs1.wavefronts24 system.Shader.CUs1.wavefronts25 system.Shader.CUs1.wavefronts26 system.Shader.CUs1.wavefronts27 system.Shader.CUs1.wavefronts28 system.Shader.CUs1.wavefronts29 system.Shader.CUs1.wavefronts30 system.Shader.CUs1.wavefronts31 system.Shader.CUs1.wavefronts32 system.Shader.CUs1.wavefronts33 system.Shader.CUs1.wavefronts34 system.Shader.CUs1.wavefronts35 system.Shader.CUs1.wavefronts36 system.Shader.CUs1.wavefronts37 system.Shader.CUs1.wavefronts38 system.Shader.CUs1.wavefronts39
wf_size=64
gmTokenPort=system.ruby.tcp_cntrl1.coalescer.gmTokenPort
ldsPort=system.Shader.CUs1.ldsBus.cpu_side_port
memory_port=system.ruby.tcp_cntrl1.coalescer.in_ports[0] system.ruby.tcp_cntrl1.coalescer.in_ports[1] system.ruby.tcp_cntrl1.coalescer.in_ports[2] system.ruby.tcp_cntrl1.coalescer.in_ports[3] system.ruby.tcp_cntrl1.coalescer.in_ports[4] system.ruby.tcp_cntrl1.coalescer.in_ports[5] system.ruby.tcp_cntrl1.coalescer.in_ports[6] system.ruby.tcp_cntrl1.coalescer.in_ports[7] system.ruby.tcp_cntrl1.coalescer.in_ports[8] system.ruby.tcp_cntrl1.coalescer.in_ports[9] system.ruby.tcp_cntrl1.coalescer.in_ports[10] system.ruby.tcp_cntrl1.coalescer.in_ports[11] system.ruby.tcp_cntrl1.coalescer.in_ports[12] system.ruby.tcp_cntrl1.coalescer.in_ports[13] system.ruby.tcp_cntrl1.coalescer.in_ports[14] system.ruby.tcp_cntrl1.coalescer.in_ports[15] system.ruby.tcp_cntrl1.coalescer.in_ports[16] system.ruby.tcp_cntrl1.coalescer.in_ports[17] system.ruby.tcp_cntrl1.coalescer.in_ports[18] system.ruby.tcp_cntrl1.coalescer.in_ports[19] system.ruby.tcp_cntrl1.coalescer.in_ports[20] system.ruby.tcp_cntrl1.coalescer.in_ports[21] system.ruby.tcp_cntrl1.coalescer.in_ports[22] system.ruby.tcp_cntrl1.coalescer.in_ports[23] system.ruby.tcp_cntrl1.coalescer.in_ports[24] system.ruby.tcp_cntrl1.coalescer.in_ports[25] system.ruby.tcp_cntrl1.coalescer.in_ports[26] system.ruby.tcp_cntrl1.coalescer.in_ports[27] system.ruby.tcp_cntrl1.coalescer.in_ports[28] system.ruby.tcp_cntrl1.coalescer.in_ports[29] system.ruby.tcp_cntrl1.coalescer.in_ports[30] system.ruby.tcp_cntrl1.coalescer.in_ports[31] system.ruby.tcp_cntrl1.coalescer.in_ports[32] system.ruby.tcp_cntrl1.coalescer.in_ports[33] system.ruby.tcp_cntrl1.coalescer.in_ports[34] system.ruby.tcp_cntrl1.coalescer.in_ports[35] system.ruby.tcp_cntrl1.coalescer.in_ports[36] system.ruby.tcp_cntrl1.coalescer.in_ports[37] system.ruby.tcp_cntrl1.coalescer.in_ports[38] system.ruby.tcp_cntrl1.coalescer.in_ports[39] system.ruby.tcp_cntrl1.coalescer.in_ports[40] system.ruby.tcp_cntrl1.coalescer.in_ports[41] system.ruby.tcp_cntrl1.coalescer.in_ports[42] system.ruby.tcp_cntrl1.coalescer.in_ports[43] system.ruby.tcp_cntrl1.coalescer.in_ports[44] system.ruby.tcp_cntrl1.coalescer.in_ports[45] system.ruby.tcp_cntrl1.coalescer.in_ports[46] system.ruby.tcp_cntrl1.coalescer.in_ports[47] system.ruby.tcp_cntrl1.coalescer.in_ports[48] system.ruby.tcp_cntrl1.coalescer.in_ports[49] system.ruby.tcp_cntrl1.coalescer.in_ports[50] system.ruby.tcp_cntrl1.coalescer.in_ports[51] system.ruby.tcp_cntrl1.coalescer.in_ports[52] system.ruby.tcp_cntrl1.coalescer.in_ports[53] system.ruby.tcp_cntrl1.coalescer.in_ports[54] system.ruby.tcp_cntrl1.coalescer.in_ports[55] system.ruby.tcp_cntrl1.coalescer.in_ports[56] system.ruby.tcp_cntrl1.coalescer.in_ports[57] system.ruby.tcp_cntrl1.coalescer.in_ports[58] system.ruby.tcp_cntrl1.coalescer.in_ports[59] system.ruby.tcp_cntrl1.coalescer.in_ports[60] system.ruby.tcp_cntrl1.coalescer.in_ports[61] system.ruby.tcp_cntrl1.coalescer.in_ports[62] system.ruby.tcp_cntrl1.coalescer.in_ports[63]
scalar_port=system.ruby.scalar_cntrl0.sequencer.in_ports[1]
scalar_tlb_port=system.scalar_coalescer.cpu_side_ports[1]
sqc_port=system.ruby.sqc_cntrl0.sequencer.in_ports[1]
sqc_tlb_port=system.sqc_coalescer.cpu_side_ports[1]
translation_port=system.l1_coalescer1.cpu_side_ports[0]

[system.Shader.CUs1.ldsBus]
type=Bridge
children=power_state
clk_domain=system.clk_domain
delay=0
eventq_index=0
power_model=
power_state=system.Shader.CUs1.ldsBus.power_state
ranges=0:18446744073709551615
req_size=16
resp_size=16
cpu_side_port=system.Shader.CUs1.ldsPort
mem_side_port=system.Shader.CUs1.localDataStore.cuPort

[system.Shader.CUs1.ldsBus.power_state]
type=PowerState
clk_gate_bins=20
clk_gate_max=1000000000000
clk_gate_min=1000
default_state=UNDEFINED
eventq_index=0
leaders=
possible_states=

[system.Shader.CUs1.localDataStore]
type=LdsState
children=power_state
bankConflictPenalty=1
banks=32
clk_domain=system.clk_domain
eventq_index=0
power_model=
power_state=system.Shader.CUs1.localDataStore.power_state
range=0:65536
size=65536
cuPort=system.Shader.CUs1.ldsBus.mem_side_port

[system.Shader.CUs1.localDataStore.power_state]
type=PowerState
clk_gate_bins=20
clk_gate_max=1000000000000
clk_gate_min=1000
default_state=UNDEFINED
eventq_index=0
leaders=
possible_states=

[system.Shader.CUs1.power_state]
type=PowerState
clk_gate_bins=20
clk_gate_max=1000000000000
clk_gate_min=1000
default_state=UNDEFINED
eventq_index=0
leaders=
possible_states=

[system.Shader.CUs1.register_manager]
type=RegisterManager
children=srf_pool_managers0 srf_pool_managers1 srf_pool_managers2 srf_pool_managers3 vrf_pool_managers0 vrf_pool_managers1 vrf_pool_managers2 vrf_pool_managers3
eventq_index=0
policy=static
srf_pool_managers=system.Shader.CUs1.register_manager.srf_pool_managers0 system.Shader.CUs1.register_manager.srf_pool_managers1 system.Shader.CUs1.register_manager.srf_pool_managers2 system.Shader.CUs1.register_manager.srf_pool_managers3
vrf_pool_managers=system.Shader.CUs1.register_manager.vrf_pool_managers0 system.Shader.CUs1.register_manager.vrf_pool_managers1 system.Shader.CUs1.register_manager.vrf_pool_managers2 system.Shader.CUs1.register_manager.vrf_pool_managers3

[system.Shader.CUs1.register_manager.srf_pool_managers0]
type=SimplePoolManager
eventq_index=0
min_alloc=4
pool_size=2048

[system.Shader.CUs1.register_manager.srf_pool_managers1]
type=SimplePoolManager
eventq_index=0
min_alloc=4
pool_size=2048

[system.Shader.CUs1.register_manager.srf_pool_managers2]
type=SimplePoolManager
eventq_index=0
min_alloc=4
pool_size=2048

[system.Shader.CUs1.register_manager.srf_pool_managers3]
type=SimplePoolManager
eventq_index=0
min_alloc=4
pool_size=2048

[system.Shader.CUs1.register_manager.vrf_pool_managers0]
type=SimplePoolManager
eventq_index=0
min_alloc=4
pool_size=2048

[system.Shader.CUs1.register_manager.vrf_pool_managers1]
type=SimplePoolManager
eventq_index=0
min_alloc=4
pool_size=2048

[system.Shader.CUs1.register_manager.vrf_pool_managers2]
type=SimplePoolManager
eventq_index=0
min_alloc=4
pool_size=2048

[system.Shader.CUs1.register_manager.vrf_pool_managers3]
type=SimplePoolManager
eventq_index=0
min_alloc=4
pool_size=2048

[system.Shader.CUs1.scalar_register_file0]
type=ScalarRegisterFile
eventq_index=0
num_regs=2048
simd_id=0
wf_size=64

[system.Shader.CUs1.scalar_register_file1]
type=ScalarRegisterFile
eventq_index=0
num_regs=2048
simd_id=1
wf_size=64

[system.Shader.CUs1.scalar_register_file2]
type=ScalarRegisterFile
eventq_index=0
num_regs=2048
simd_id=2
wf_size=64

[system.Shader.CUs1.scalar_register_file3]
type=ScalarRegisterFile
eventq_index=0
num_regs=2048
simd_id=3
wf_size=64

[system.Shader.CUs1.vector_register_file0]
type=VectorRegisterFile
eventq_index=0
num_regs=2048
simd_id=0
wf_size=64

[system.Shader.CUs1.vector_register_file1]
type=VectorRegisterFile
eventq_index=0
num_regs=2048
simd_id=1
wf_size=64

[system.Shader.CUs1.vector_register_file2]
type=VectorRegisterFile
eventq_index=0
num_regs=2048
simd_id=2
wf_size=64

[system.Shader.CUs1.vector_register_file3]
type=VectorRegisterFile
eventq_index=0
num_regs=2048
simd_id=3
wf_size=64

[system.Shader.CUs1.wavefronts00]
type=Wavefront
eventq_index=0
max_ib_size=13
simdId=0
wf_size=64
wf_slot_id=0

[system.Shader.CUs1.wavefronts01]
type=Wavefront
eventq_index=0
max_ib_size=13
simdId=0
wf_size=64
wf_slot_id=1

[system.Shader.CUs1.wavefronts02]
type=Wavefront
eventq_index=0
max_ib_size=13
simdId=0
wf_size=64
wf_slot_id=2

[system.Shader.CUs1.wavefronts03]
type=Wavefront
eventq_index=0
max_ib_size=13
simdId=0
wf_size=64
wf_slot_id=3

[system.Shader.CUs1.wavefronts04]
type=Wavefront
eventq_index=0
max_ib_size=13
simdId=0
wf_size=64
wf_slot_id=4

[system.Shader.CUs1.wavefronts05]
type=Wavefront
eventq_index=0
max_ib_size=13
simdId=0
wf_size=64
wf_slot_id=5

[system.Shader.CUs1.wavefronts06]
type=Wavefront
eventq_index=0
max_ib_size=13
simdId=0
wf_size=64
wf_slot_id=6

[system.Shader.CUs1.wavefronts07]
type=Wavefront
eventq_index=0
max_ib_size=13
simdId=0
wf_size=64
wf_slot_id=7

[system.Shader.CUs1.wavefronts08]
type=Wavefront
eventq_index=0
max_ib_size=13
simdId=0
wf_size=64
wf_slot_id=8

[system.Shader.CUs1.wavefronts09]
type=Wavefront
eventq_index=0
max_ib_size=13
simdId=0
wf_size=64
wf_slot_id=9

[system.Shader.CUs1.wavefronts10]
type=Wavefront
eventq_index=0
max_ib_size=13
simdId=1
wf_size=64
wf_slot_id=0

[system.Shader.CUs1.wavefronts11]
type=Wavefront
eventq_index=0
max_ib_size=13
simdId=1
wf_size=64
wf_slot_id=1

[system.Shader.CUs1.wavefronts12]
type=Wavefront
eventq_index=0
max_ib_size=13
simdId=1
wf_size=64
wf_slot_id=2

[system.Shader.CUs1.wavefronts13]
type=Wavefront
eventq_index=0
max_ib_size=13
simdId=1
wf_size=64
wf_slot_id=3

[system.Shader.CUs1.wavefronts14]
type=Wavefront
eventq_index=0
max_ib_size=13
simdId=1
wf_size=64
wf_slot_id=4

[system.Shader.CUs1.wavefronts15]
type=Wavefront
eventq_index=0
max_ib_size=13
simdId=1
wf_size=64
wf_slot_id=5

[system.Shader.CUs1.wavefronts16]
type=Wavefront
eventq_index=0
max_ib_size=13
simdId=1
wf_size=64
wf_slot_id=6

[system.Shader.CUs1.wavefronts17]
type=Wavefront
eventq_index=0
max_ib_size=13
simdId=1
wf_size=64
wf_slot_id=7

[system.Shader.CUs1.wavefronts18]
type=Wavefront
eventq_index=0
max_ib_size=13
simdId=1
wf_size=64
wf_slot_id=8

[system.Shader.CUs1.wavefronts19]
type=Wavefront
eventq_index=0
max_ib_size=13
simdId=1
wf_size=64
wf_slot_id=9

[system.Shader.CUs1.wavefronts20]
type=Wavefront
eventq_index=0